data_image0
_chemical_formula_structural       ZnOZnOZnOZnOZnOZnOZnOZnOZnOZnOZnOZnOZnOZnOZnOZnOZnOZnOZnOZnOZnOZnOZnOZnOZnOZnOZnO
_chemical_formula_sum              "Zn27 O27"
_cell_length_a       8.07557
_cell_length_b       8.07557
_cell_length_c       8.07557
_cell_angle_alpha    90
_cell_angle_beta     90
_cell_angle_gamma    90

_space_group_name_H-M_alt    "P 1"
_space_group_IT_number       1

loop_
  _space_group_symop_operation_xyz
  'x, y, z'

loop_
  _atom_site_type_symbol
  _atom_site_label
  _atom_site_symmetry_multiplicity
  _atom_site_fract_x
  _atom_site_fract_y
  _atom_site_fract_z
  _atom_site_occupancy
  Zn  Zn1       1.0  0.00000  0.00000  0.00000  1.0000
  O   O1        1.0  0.16667  0.16667  0.16667  1.0000
  Zn  Zn2       1.0  0.00000  0.00000  0.33333  1.0000
  O   O2        1.0  0.16667  0.16667  0.50000  1.0000
  Zn  Zn3       1.0  0.00000  0.00000  0.66667  1.0000
  O   O3        1.0  0.16667  0.16667  0.83333  1.0000
  Zn  Zn4       1.0  0.00000  0.33333  0.00000  1.0000
  O   O4        1.0  0.16667  0.50000  0.16667  1.0000
  Zn  Zn5       1.0  0.00000  0.33333  0.33333  1.0000
  O   O5        1.0  0.16667  0.50000  0.50000  1.0000
  Zn  Zn6       1.0  0.00000  0.33333  0.66667  1.0000
  O   O6        1.0  0.16667  0.50000  0.83333  1.0000
  Zn  Zn7       1.0  0.00000  0.66667  0.00000  1.0000
  O   O7        1.0  0.16667  0.83333  0.16667  1.0000
  Zn  Zn8       1.0  0.00000  0.66667  0.33333  1.0000
  O   O8        1.0  0.16667  0.83333  0.50000  1.0000
  Zn  Zn9       1.0  0.00000  0.66667  0.66667  1.0000
  O   O9        1.0  0.16667  0.83333  0.83333  1.0000
  Zn  Zn10      1.0  0.33333  0.00000  0.00000  1.0000
  O   O10       1.0  0.50000  0.16667  0.16667  1.0000
  Zn  Zn11      1.0  0.33333  0.00000  0.33333  1.0000
  O   O11       1.0  0.50000  0.16667  0.50000  1.0000
  Zn  Zn12      1.0  0.33333  0.00000  0.66667  1.0000
  O   O12       1.0  0.50000  0.16667  0.83333  1.0000
  Zn  Zn13      1.0  0.33333  0.33333  0.00000  1.0000
  O   O13       1.0  0.50000  0.50000  0.16667  1.0000
  Zn  Zn14      1.0  0.33333  0.33333  0.33333  1.0000
  O   O14       1.0  0.50000  0.50000  0.50000  1.0000
  Zn  Zn15      1.0  0.33333  0.33333  0.66667  1.0000
  O   O15       1.0  0.50000  0.50000  0.83333  1.0000
  Zn  Zn16      1.0  0.33333  0.66667  0.00000  1.0000
  O   O16       1.0  0.50000  0.83333  0.16667  1.0000
  Zn  Zn17      1.0  0.33333  0.66667  0.33333  1.0000
  O   O17       1.0  0.50000  0.83333  0.50000  1.0000
  Zn  Zn18      1.0  0.33333  0.66667  0.66667  1.0000
  O   O18       1.0  0.50000  0.83333  0.83333  1.0000
  Zn  Zn19      1.0  0.66667  0.00000  0.00000  1.0000
  O   O19       1.0  0.83333  0.16667  0.16667  1.0000
  Zn  Zn20      1.0  0.66667  0.00000  0.33333  1.0000
  O   O20       1.0  0.83333  0.16667  0.50000  1.0000
  Zn  Zn21      1.0  0.66667  0.00000  0.66667  1.0000
  O   O21       1.0  0.83333  0.16667  0.83333  1.0000
  Zn  Zn22      1.0  0.66667  0.33333  0.00000  1.0000
  O   O22       1.0  0.83333  0.50000  0.16667  1.0000
  Zn  Zn23      1.0  0.66667  0.33333  0.33333  1.0000
  O   O23       1.0  0.83333  0.50000  0.50000  1.0000
  Zn  Zn24      1.0  0.66667  0.33333  0.66667  1.0000
  O   O24       1.0  0.83333  0.50000  0.83333  1.0000
  Zn  Zn25      1.0  0.66667  0.66667  0.00000  1.0000
  O   O25       1.0  0.83333  0.83333  0.16667  1.0000
  Zn  Zn26      1.0  0.66667  0.66667  0.33333  1.0000
  O   O26       1.0  0.83333  0.83333  0.50000  1.0000
  Zn  Zn27      1.0  0.66667  0.66667  0.66667  1.0000
  O   O27       1.0  0.83333  0.83333  0.83333  1.0000
